/*--------------------------------*- C++ -*----------------------------------*\
| =========                 |                                                 |
| \\      /  F ield         | OpenFOAM: The Open Source CFD Toolbox           |
|  \\    /   O peration     | Version:  2.4.0                                 |
|   \\  /    A nd           | Web:      www.OpenFOAM.org                      |
|    \\/     M anipulation  |                                                 |
\*---------------------------------------------------------------------------*/
FoamFile
{
    version     2.0;
    format      ascii;
    class       polyBoundaryMesh;
    location    "constant/polyMesh";
    object      boundary;
}
// * * * * * * * * * * * * * * * * * * * * * * * * * * * * * * * * * * * * * //

9
(
    inner_convection
    {
        type            wall;
        inGroups        1(wall);
        nFaces          116;
        startFace       3527;
    }
    outer_convection
    {
        type            wall;
        inGroups        1(wall);
        nFaces          314;
        startFace       3643;
    }
    heat_
    {
        type            wall;
        inGroups        1(wall);
        nFaces          35;
        startFace       3957;
    }
    inner_fixtemp
    {
        type            wall;
        inGroups        1(wall);
        nFaces          84;
        startFace       3992;
    }
    symmetry-zone_01
    {
        type            symmetryPlane;
        inGroups        
2
(
symmetry
symmetryPlane
)
;
        nFaces          38;
        startFace       4076;
    }
    symmetry-zone_02
    {
        type            symmetryPlane;
        inGroups        
2
(
symmetry
symmetryPlane
)
;
        nFaces          51;
        startFace       4114;
    }
    free
    {
        type            wall;
        inGroups        1(wall);
        nFaces          48;
        startFace       4165;
    }
    procBoundary0to1
    {
        type            processor;
        inGroups        1(processor);
        nFaces          96;
        startFace       4213;
        matchTolerance  0.0001;
        transform       unknown;
        myProcNo        0;
        neighbProcNo    1;
    }
    procBoundary0to2
    {
        type            processor;
        inGroups        1(processor);
        nFaces          90;
        startFace       4309;
        matchTolerance  0.0001;
        transform       unknown;
        myProcNo        0;
        neighbProcNo    2;
    }
)

// ************************************************************************* //
