/*--------------------------------*- C++ -*----------------------------------*\
| =========                 |                                                 |
| \\      /  F ield         | OpenFOAM: The Open Source CFD Toolbox           |
|  \\    /   O peration     | Version:  2.2.0                                 |
|   \\  /    A nd           | Web:      www.OpenFOAM.org                      |
|    \\/     M anipulation  |                                                 |
\*---------------------------------------------------------------------------*/
FoamFile
{
    version     2.0;
    format      ascii;
    class       dictionary;
    object      controlDict;
}
// * * * * * * * * * * * * * * * * * * * * * * * * * * * * * * * * * * * * * //


solvers
{
    T
    {
	DDM_Type FETI;  // HFETI
	//cluster_Decomp  128;
	
	
	solver PCG;
	preconditioner lumped;
	minIter 1;
	maxIter 500;
	
	tolerance 1e-5;
	relTol    0;
	useAccelerator  false;
     }

}


formulation
{
    type FEM;
    
    zoneType
    {
	type BEM;
	Zone_01
    }
}



solution
{
    type    linear;
    transient  false;      
    // nonlinearSolver   Newton;
    
}





// ************************************************************************* //
