/*--------------------------------*- C++ -*----------------------------------*\
| =========                 |                                                 |
| \\      /  F ield         | OpenFOAM: The Open Source CFD Toolbox           |
|  \\    /   O peration     | Version:  2.4.0                                 |
|   \\  /    A nd           | Web:      www.OpenFOAM.org                      |
|    \\/     M anipulation  |                                                 |
\*---------------------------------------------------------------------------*/
FoamFile
{
    version     2.0;
    format      ascii;
    class       polyBoundaryMesh;
    location    "constant/polyMesh";
    object      boundary;
}
// * * * * * * * * * * * * * * * * * * * * * * * * * * * * * * * * * * * * * //

9
(
    inner_convection
    {
        type            wall;
        inGroups        1(wall);
        nFaces          112;
        startFace       3513;
    }
    outer_convection
    {
        type            wall;
        inGroups        1(wall);
        nFaces          352;
        startFace       3625;
    }
    heat_
    {
        type            wall;
        inGroups        1(wall);
        nFaces          37;
        startFace       3977;
    }
    inner_fixtemp
    {
        type            wall;
        inGroups        1(wall);
        nFaces          84;
        startFace       4014;
    }
    symmetry-zone_01
    {
        type            symmetryPlane;
        inGroups        
2
(
symmetry
symmetryPlane
)
;
        nFaces          34;
        startFace       4098;
    }
    symmetry-zone_02
    {
        type            symmetryPlane;
        inGroups        
2
(
symmetry
symmetryPlane
)
;
        nFaces          49;
        startFace       4132;
    }
    free
    {
        type            wall;
        inGroups        1(wall);
        nFaces          52;
        startFace       4181;
    }
    procBoundary2to0
    {
        type            processor;
        inGroups        1(processor);
        nFaces          90;
        startFace       4233;
        matchTolerance  0.0001;
        transform       unknown;
        myProcNo        2;
        neighbProcNo    0;
    }
    procBoundary2to3
    {
        type            processor;
        inGroups        1(processor);
        nFaces          96;
        startFace       4323;
        matchTolerance  0.0001;
        transform       unknown;
        myProcNo        2;
        neighbProcNo    3;
    }
)

// ************************************************************************* //
