/*--------------------------------*- C++ -*----------------------------------*\
| =========                 |                                                 |
| \\      /  F ield         | OpenFOAM: The Open Source CFD Toolbox           |
|  \\    /   O peration     | Version:  2.4.0                                 |
|   \\  /    A nd           | Web:      www.OpenFOAM.org                      |
|    \\/     M anipulation  |                                                 |
\*---------------------------------------------------------------------------*/
FoamFile
{
    version     2.0;
    format      ascii;
    class       polyBoundaryMesh;
    location    "constant/polyMesh";
    object      boundary;
}
// * * * * * * * * * * * * * * * * * * * * * * * * * * * * * * * * * * * * * //

9
(
    inner_convection
    {
        type            wall;
        inGroups        1(wall);
        nFaces          100;
        startFace       3555;
    }
    outer_convection
    {
        type            wall;
        inGroups        1(wall);
        nFaces          352;
        startFace       3655;
    }
    heat_
    {
        type            wall;
        inGroups        1(wall);
        nFaces          36;
        startFace       4007;
    }
    inner_fixtemp
    {
        type            wall;
        inGroups        1(wall);
        nFaces          90;
        startFace       4043;
    }
    symmetry-zone_01
    {
        type            symmetryPlane;
        inGroups        
2
(
symmetry
symmetryPlane
)
;
        nFaces          33;
        startFace       4133;
    }
    symmetry-zone_02
    {
        type            symmetryPlane;
        inGroups        
2
(
symmetry
symmetryPlane
)
;
        nFaces          50;
        startFace       4166;
    }
    free
    {
        type            wall;
        inGroups        1(wall);
        nFaces          53;
        startFace       4216;
    }
    procBoundary1to0
    {
        type            processor;
        inGroups        1(processor);
        nFaces          96;
        startFace       4269;
        matchTolerance  0.0001;
        transform       unknown;
        myProcNo        1;
        neighbProcNo    0;
    }
    procBoundary1to3
    {
        type            processor;
        inGroups        1(processor);
        nFaces          90;
        startFace       4365;
        matchTolerance  0.0001;
        transform       unknown;
        myProcNo        1;
        neighbProcNo    3;
    }
)

// ************************************************************************* //
