/*--------------------------------*- C++ -*----------------------------------*\
| =========                 |                                                 |
| \\      /  F ield         | OpenFOAM: The Open Source CFD Toolbox           |
|  \\    /   O peration     | Version:  4.1                                   |
|   \\  /    A nd           | Web:      www.OpenFOAM.org                      |
|    \\/     M anipulation  |                                                 |
\*---------------------------------------------------------------------------*/
FoamFile
{
    version     2.0;
    format      ascii;
    class       polyBoundaryMesh;
    location    "constant/polyMesh";
    object      boundary;
}
// * * * * * * * * * * * * * * * * * * * * * * * * * * * * * * * * * * * * * //

4
(
    movingWall
    {
        type            wall;
        inGroups        1(wall);
        nFaces          8;
        startFace       64;
    }
    fixedWalls
    {
        type            wall;
        inGroups        1(wall);
        nFaces          24;
        startFace       72;
    }
    frontAndBack
    {
        type            empty;
        inGroups        1(empty);
        nFaces          16;
        startFace       96;
    }
    procBoundary0to1
    {
        type            processor;
        inGroups        1(processor);
        nFaces          16;
        startFace       112;
        matchTolerance  0.0001;
        transform       unknown;
        myProcNo        0;
        neighbProcNo    1;
    }
)

// ************************************************************************* //
